gem5 Simulator System.  http://gem5.org
gem5 is copyrighted software; use the --copyright option for details.

gem5 compiled Sep 30 2021 20:43:44
gem5 started Dec  5 2021 23:40:44
gem5 executing on ubuntu18, pid 19468
command line: /data/src/750-SALAM/build/ARM/gem5.opt --debug-flags=NoncoherentDma --outdir=BM_MODEL/flow_e_k gem5-config/run_mnist.py --mem-size=8GB --kernel=/data/home/ablondal/cmpt450_groupproject/model/flow_e_k/host/main.elf --disk-image=/data/src/750-SALAM/baremetal/common/fake.iso --machine-type=VExpress_GEM5_V1 --dtb-file=none --bare-metal --cpu-type=MinorCPU --accpath=/data/home/ablondal/cmpt450_groupproject/model --accbench=flow_e_k --caches --l2cache --input inputs/mnist/bin/inputs/mnist_input0.bin --m0 inputs/mnist/bin/m0.bin --m1 inputs/mnist/bin/m1.bin

Input file
inputs/mnist/bin/inputs/mnist_input0.bin
M0 file
inputs/mnist/bin/m0.bin
Loading file input at0x80100000
Loading file m0 at0x80100c48
Loading file m1 at0x80162c50
/data/home/ablondal/cmpt450_groupproject/model/flow_e_k/hw/configs/top.ini
['argmax']
Addingargmax
Global frequency set at 1000000000000 ticks per second
Cycle Counts Loaded!
Cycle Counts Loaded!
**** REAL SIMULATION ****
Exiting @ tick 1226942000 because m5_exit instruction encountered
