
---------- Begin Simulation Statistics ----------
final_tick                                 1226941500                       # Number of ticks from beginning of simulation (restored from checkpoints and never reset)
host_inst_rate                                  85393                       # Simulator instruction rate (inst/s)
host_mem_usage                                8649588                       # Number of bytes of host memory used
host_op_rate                                    93848                       # Simulator op (including micro ops) rate (op/s)
host_seconds                                     0.57                       # Real time elapsed on the host
host_tick_rate                             2057007575                       # Simulator tick rate (ticks/s)
sim_freq                                 1000000000000                       # Frequency of simulated ticks
sim_insts                                       48854                       # Number of instructions simulated
sim_ops                                         53709                       # Number of ops (including micro ops) simulated
sim_seconds                                  0.001177                       # Number of seconds simulated
sim_ticks                                  1177348500                       # Number of ticks simulated
system.acctest.coherency_bus.snoop_filter.hit_multi_requests            0                       # Number of requests hitting in the snoop filter with multiple (>1) holders of the requested data.
system.acctest.coherency_bus.snoop_filter.hit_multi_snoops            0                       # Number of snoops hitting in the snoop filter with multiple (>1) holders of the requested data.
system.acctest.coherency_bus.snoop_filter.hit_single_requests            0                       # Number of requests hitting in the snoop filter with a single holder of the requested data.
system.acctest.coherency_bus.snoop_filter.hit_single_snoops            0                       # Number of snoops hitting in the snoop filter with a single holder of the requested data.
system.acctest.coherency_bus.snoop_filter.tot_requests            0                       # Total number of requests made to the snoop filter.
system.acctest.coherency_bus.snoop_filter.tot_snoops            0                       # Total number of snoops made to the snoop filter.
system.cf0.dma_read_bytes                           0                       # Number of bytes transfered via DMA reads (not PRD).
system.cf0.dma_read_full_pages                      0                       # Number of full page size DMA reads (not PRD).
system.cf0.dma_read_txs                             0                       # Number of DMA read transactions (not PRD).
system.cf0.dma_write_bytes                          0                       # Number of bytes transfered via DMA writes.
system.cf0.dma_write_full_pages                     0                       # Number of full page size DMA writes.
system.cf0.dma_write_txs                            0                       # Number of DMA write transactions.
system.cpu.branchPred.BTBCorrect                    0                       # Number of correct BTB predictions (this stat may not work properly.
system.cpu.branchPred.BTBHitPct             58.711966                       # BTB Hit Percentage
system.cpu.branchPred.BTBHits                    4303                       # Number of BTB hits
system.cpu.branchPred.BTBLookups                 7329                       # Number of BTB lookups
system.cpu.branchPred.RASInCorrect                118                       # Number of incorrect RAS predictions.
system.cpu.branchPred.condIncorrect               770                       # Number of conditional branches incorrect
system.cpu.branchPred.condPredicted              9707                       # Number of conditional branches predicted
system.cpu.branchPred.indirectHits                 22                       # Number of indirect target hits.
system.cpu.branchPred.indirectLookups              40                       # Number of indirect predictor lookups.
system.cpu.branchPred.indirectMisses               18                       # Number of indirect misses.
system.cpu.branchPred.lookups                   11705                       # Number of BP lookups
system.cpu.branchPred.usedRAS                     754                       # Number of times the RAS was used to get a target.
system.cpu.branchPredindirectMispredicted            8                       # Number of mispredicted indirect branches.
system.cpu.committedInsts                       47057                       # Number of instructions committed
system.cpu.committedOps                         51837                       # Number of ops (including micro ops) committed
system.cpu.cpi                              50.039250                       # CPI: cycles per instruction
system.cpu.discardedOps                          2513                       # Number of ops (including micro ops) which were discarded before commit
system.cpu.dtb.accesses                             0                       # DTB accesses
system.cpu.dtb.align_faults                         0                       # Number of TLB faults due to alignment restrictions
system.cpu.dtb.domain_faults                        0                       # Number of TLB faults due to domain restrictions
system.cpu.dtb.flush_entries                        0                       # Number of entries that have been flushed from TLB
system.cpu.dtb.flush_tlb                            0                       # Number of times complete TLB was flushed
system.cpu.dtb.flush_tlb_asid                       0                       # Number of times TLB was flushed by ASID
system.cpu.dtb.flush_tlb_mva                        0                       # Number of times TLB was flushed by MVA
system.cpu.dtb.flush_tlb_mva_asid                   0                       # Number of times TLB was flushed by MVA & ASID
system.cpu.dtb.hits                                 0                       # DTB hits
system.cpu.dtb.inst_accesses                        0                       # ITB inst accesses
system.cpu.dtb.inst_hits                            0                       # ITB inst hits
system.cpu.dtb.inst_misses                          0                       # ITB inst misses
system.cpu.dtb.misses                               0                       # DTB misses
system.cpu.dtb.perms_faults                         0                       # Number of TLB faults due to permissions restrictions
system.cpu.dtb.prefetch_faults                      0                       # Number of TLB faults due to prefetch
system.cpu.dtb.read_accesses                        0                       # DTB read accesses
system.cpu.dtb.read_hits                            0                       # DTB read hits
system.cpu.dtb.read_misses                          0                       # DTB read misses
system.cpu.dtb.stage2_mmu.stage2_tlb.accesses            0                       # DTB accesses
system.cpu.dtb.stage2_mmu.stage2_tlb.align_faults            0                       # Number of TLB faults due to alignment restrictions
system.cpu.dtb.stage2_mmu.stage2_tlb.domain_faults            0                       # Number of TLB faults due to domain restrictions
system.cpu.dtb.stage2_mmu.stage2_tlb.flush_entries            0                       # Number of entries that have been flushed from TLB
system.cpu.dtb.stage2_mmu.stage2_tlb.flush_tlb            0                       # Number of times complete TLB was flushed
system.cpu.dtb.stage2_mmu.stage2_tlb.flush_tlb_asid            0                       # Number of times TLB was flushed by ASID
system.cpu.dtb.stage2_mmu.stage2_tlb.flush_tlb_mva            0                       # Number of times TLB was flushed by MVA
system.cpu.dtb.stage2_mmu.stage2_tlb.flush_tlb_mva_asid            0                       # Number of times TLB was flushed by MVA & ASID
system.cpu.dtb.stage2_mmu.stage2_tlb.hits            0                       # DTB hits
system.cpu.dtb.stage2_mmu.stage2_tlb.inst_accesses            0                       # ITB inst accesses
system.cpu.dtb.stage2_mmu.stage2_tlb.inst_hits            0                       # ITB inst hits
system.cpu.dtb.stage2_mmu.stage2_tlb.inst_misses            0                       # ITB inst misses
system.cpu.dtb.stage2_mmu.stage2_tlb.misses            0                       # DTB misses
system.cpu.dtb.stage2_mmu.stage2_tlb.perms_faults            0                       # Number of TLB faults due to permissions restrictions
system.cpu.dtb.stage2_mmu.stage2_tlb.prefetch_faults            0                       # Number of TLB faults due to prefetch
system.cpu.dtb.stage2_mmu.stage2_tlb.read_accesses            0                       # DTB read accesses
system.cpu.dtb.stage2_mmu.stage2_tlb.read_hits            0                       # DTB read hits
system.cpu.dtb.stage2_mmu.stage2_tlb.read_misses            0                       # DTB read misses
system.cpu.dtb.stage2_mmu.stage2_tlb.walker.walkRequestOrigin_Requested::Data            0                       # Table walker requests started/completed, data/inst
system.cpu.dtb.stage2_mmu.stage2_tlb.walker.walkRequestOrigin_Requested::Inst            0                       # Table walker requests started/completed, data/inst
system.cpu.dtb.stage2_mmu.stage2_tlb.walker.walkRequestOrigin_Requested::total            0                       # Table walker requests started/completed, data/inst
system.cpu.dtb.stage2_mmu.stage2_tlb.walker.walkRequestOrigin_Completed::Data            0                       # Table walker requests started/completed, data/inst
system.cpu.dtb.stage2_mmu.stage2_tlb.walker.walkRequestOrigin_Completed::Inst            0                       # Table walker requests started/completed, data/inst
system.cpu.dtb.stage2_mmu.stage2_tlb.walker.walkRequestOrigin_Completed::total            0                       # Table walker requests started/completed, data/inst
system.cpu.dtb.stage2_mmu.stage2_tlb.walker.walkRequestOrigin::total            0                       # Table walker requests started/completed, data/inst
system.cpu.dtb.stage2_mmu.stage2_tlb.walker.walks            0                       # Table walker walks requested
system.cpu.dtb.stage2_mmu.stage2_tlb.write_accesses            0                       # DTB write accesses
system.cpu.dtb.stage2_mmu.stage2_tlb.write_hits            0                       # DTB write hits
system.cpu.dtb.stage2_mmu.stage2_tlb.write_misses            0                       # DTB write misses
system.cpu.dtb.walker.walkRequestOrigin_Requested::Data            0                       # Table walker requests started/completed, data/inst
system.cpu.dtb.walker.walkRequestOrigin_Requested::Inst            0                       # Table walker requests started/completed, data/inst
system.cpu.dtb.walker.walkRequestOrigin_Requested::total            0                       # Table walker requests started/completed, data/inst
system.cpu.dtb.walker.walkRequestOrigin_Completed::Data            0                       # Table walker requests started/completed, data/inst
system.cpu.dtb.walker.walkRequestOrigin_Completed::Inst            0                       # Table walker requests started/completed, data/inst
system.cpu.dtb.walker.walkRequestOrigin_Completed::total            0                       # Table walker requests started/completed, data/inst
system.cpu.dtb.walker.walkRequestOrigin::total            0                       # Table walker requests started/completed, data/inst
system.cpu.dtb.walker.walks                         0                       # Table walker walks requested
system.cpu.dtb.write_accesses                       0                       # DTB write accesses
system.cpu.dtb.write_hits                           0                       # DTB write hits
system.cpu.dtb.write_misses                         0                       # DTB write misses
system.cpu.fetch2.amo_instructions                  0                       # Number of memory atomic instructions successfully decoded
system.cpu.fetch2.fp_instructions                   0                       # Number of floating point instructions successfully decoded
system.cpu.fetch2.int_instructions              31353                       # Number of integer instructions successfully decoded
system.cpu.fetch2.load_instructions              7181                       # Number of memory load instructions successfully decoded
system.cpu.fetch2.store_instructions             6077                       # Number of memory store instructions successfully decoded
system.cpu.fetch2.vec_instructions                  0                       # Number of SIMD instructions successfully decoded
system.cpu.idleCycles                         2221433                       # Total number of cycles that the object has spent stopped
system.cpu.ipc                               0.019984                       # IPC: instructions per cycle
system.cpu.itb.accesses                             0                       # DTB accesses
system.cpu.itb.align_faults                         0                       # Number of TLB faults due to alignment restrictions
system.cpu.itb.domain_faults                        0                       # Number of TLB faults due to domain restrictions
system.cpu.itb.flush_entries                        0                       # Number of entries that have been flushed from TLB
system.cpu.itb.flush_tlb                            0                       # Number of times complete TLB was flushed
system.cpu.itb.flush_tlb_asid                       0                       # Number of times TLB was flushed by ASID
system.cpu.itb.flush_tlb_mva                        0                       # Number of times TLB was flushed by MVA
system.cpu.itb.flush_tlb_mva_asid                   0                       # Number of times TLB was flushed by MVA & ASID
system.cpu.itb.hits                                 0                       # DTB hits
system.cpu.itb.inst_accesses                        0                       # ITB inst accesses
system.cpu.itb.inst_hits                            0                       # ITB inst hits
system.cpu.itb.inst_misses                          0                       # ITB inst misses
system.cpu.itb.misses                               0                       # DTB misses
system.cpu.itb.perms_faults                         0                       # Number of TLB faults due to permissions restrictions
system.cpu.itb.prefetch_faults                      0                       # Number of TLB faults due to prefetch
system.cpu.itb.read_accesses                        0                       # DTB read accesses
system.cpu.itb.read_hits                            0                       # DTB read hits
system.cpu.itb.read_misses                          0                       # DTB read misses
system.cpu.itb.stage2_mmu.stage2_tlb.accesses            0                       # DTB accesses
system.cpu.itb.stage2_mmu.stage2_tlb.align_faults            0                       # Number of TLB faults due to alignment restrictions
system.cpu.itb.stage2_mmu.stage2_tlb.domain_faults            0                       # Number of TLB faults due to domain restrictions
system.cpu.itb.stage2_mmu.stage2_tlb.flush_entries            0                       # Number of entries that have been flushed from TLB
system.cpu.itb.stage2_mmu.stage2_tlb.flush_tlb            0                       # Number of times complete TLB was flushed
system.cpu.itb.stage2_mmu.stage2_tlb.flush_tlb_asid            0                       # Number of times TLB was flushed by ASID
system.cpu.itb.stage2_mmu.stage2_tlb.flush_tlb_mva            0                       # Number of times TLB was flushed by MVA
system.cpu.itb.stage2_mmu.stage2_tlb.flush_tlb_mva_asid            0                       # Number of times TLB was flushed by MVA & ASID
system.cpu.itb.stage2_mmu.stage2_tlb.hits            0                       # DTB hits
system.cpu.itb.stage2_mmu.stage2_tlb.inst_accesses            0                       # ITB inst accesses
system.cpu.itb.stage2_mmu.stage2_tlb.inst_hits            0                       # ITB inst hits
system.cpu.itb.stage2_mmu.stage2_tlb.inst_misses            0                       # ITB inst misses
system.cpu.itb.stage2_mmu.stage2_tlb.misses            0                       # DTB misses
system.cpu.itb.stage2_mmu.stage2_tlb.perms_faults            0                       # Number of TLB faults due to permissions restrictions
system.cpu.itb.stage2_mmu.stage2_tlb.prefetch_faults            0                       # Number of TLB faults due to prefetch
system.cpu.itb.stage2_mmu.stage2_tlb.read_accesses            0                       # DTB read accesses
system.cpu.itb.stage2_mmu.stage2_tlb.read_hits            0                       # DTB read hits
system.cpu.itb.stage2_mmu.stage2_tlb.read_misses            0                       # DTB read misses
system.cpu.itb.stage2_mmu.stage2_tlb.walker.walkRequestOrigin_Requested::Data            0                       # Table walker requests started/completed, data/inst
system.cpu.itb.stage2_mmu.stage2_tlb.walker.walkRequestOrigin_Requested::Inst            0                       # Table walker requests started/completed, data/inst
system.cpu.itb.stage2_mmu.stage2_tlb.walker.walkRequestOrigin_Requested::total            0                       # Table walker requests started/completed, data/inst
system.cpu.itb.stage2_mmu.stage2_tlb.walker.walkRequestOrigin_Completed::Data            0                       # Table walker requests started/completed, data/inst
system.cpu.itb.stage2_mmu.stage2_tlb.walker.walkRequestOrigin_Completed::Inst            0                       # Table walker requests started/completed, data/inst
system.cpu.itb.stage2_mmu.stage2_tlb.walker.walkRequestOrigin_Completed::total            0                       # Table walker requests started/completed, data/inst
system.cpu.itb.stage2_mmu.stage2_tlb.walker.walkRequestOrigin::total            0                       # Table walker requests started/completed, data/inst
system.cpu.itb.stage2_mmu.stage2_tlb.walker.walks            0                       # Table walker walks requested
system.cpu.itb.stage2_mmu.stage2_tlb.write_accesses            0                       # DTB write accesses
system.cpu.itb.stage2_mmu.stage2_tlb.write_hits            0                       # DTB write hits
system.cpu.itb.stage2_mmu.stage2_tlb.write_misses            0                       # DTB write misses
system.cpu.itb.walker.walkRequestOrigin_Requested::Data            0                       # Table walker requests started/completed, data/inst
system.cpu.itb.walker.walkRequestOrigin_Requested::Inst            0                       # Table walker requests started/completed, data/inst
system.cpu.itb.walker.walkRequestOrigin_Requested::total            0                       # Table walker requests started/completed, data/inst
system.cpu.itb.walker.walkRequestOrigin_Completed::Data            0                       # Table walker requests started/completed, data/inst
system.cpu.itb.walker.walkRequestOrigin_Completed::Inst            0                       # Table walker requests started/completed, data/inst
system.cpu.itb.walker.walkRequestOrigin_Completed::total            0                       # Table walker requests started/completed, data/inst
system.cpu.itb.walker.walkRequestOrigin::total            0                       # Table walker requests started/completed, data/inst
system.cpu.itb.walker.walks                         0                       # Table walker walks requested
system.cpu.itb.write_accesses                       0                       # DTB write accesses
system.cpu.itb.write_hits                           0                       # DTB write hits
system.cpu.itb.write_misses                         0                       # DTB write misses
system.cpu.kern.inst.arm                            0                       # number of arm instructions executed
system.cpu.kern.inst.quiesce                        0                       # number of quiesce instructions executed
system.cpu.numCycles                          2354697                       # number of cpu cycles simulated
system.cpu.numFetchSuspends                         0                       # Number of times Execute suspended instruction fetching
system.cpu.numWorkItemsCompleted                    0                       # number of work items this cpu completed
system.cpu.numWorkItemsStarted                      0                       # number of work items this cpu started
system.cpu.op_class_0::No_OpClass                   0      0.00%      0.00% # Class of committed instruction
system.cpu.op_class_0::IntAlu                   36097     69.64%     69.64% # Class of committed instruction
system.cpu.op_class_0::IntMult                      0      0.00%     69.64% # Class of committed instruction
system.cpu.op_class_0::IntDiv                       0      0.00%     69.64% # Class of committed instruction
system.cpu.op_class_0::FloatAdd                     0      0.00%     69.64% # Class of committed instruction
system.cpu.op_class_0::FloatCmp                     0      0.00%     69.64% # Class of committed instruction
system.cpu.op_class_0::FloatCvt                     0      0.00%     69.64% # Class of committed instruction
system.cpu.op_class_0::FloatMult                    0      0.00%     69.64% # Class of committed instruction
system.cpu.op_class_0::FloatMultAcc                 0      0.00%     69.64% # Class of committed instruction
system.cpu.op_class_0::FloatDiv                     0      0.00%     69.64% # Class of committed instruction
system.cpu.op_class_0::FloatMisc                    0      0.00%     69.64% # Class of committed instruction
system.cpu.op_class_0::FloatSqrt                    0      0.00%     69.64% # Class of committed instruction
system.cpu.op_class_0::SimdAdd                      0      0.00%     69.64% # Class of committed instruction
system.cpu.op_class_0::SimdAddAcc                   0      0.00%     69.64% # Class of committed instruction
system.cpu.op_class_0::SimdAlu                      0      0.00%     69.64% # Class of committed instruction
system.cpu.op_class_0::SimdCmp                      0      0.00%     69.64% # Class of committed instruction
system.cpu.op_class_0::SimdCvt                      0      0.00%     69.64% # Class of committed instruction
system.cpu.op_class_0::SimdMisc                     0      0.00%     69.64% # Class of committed instruction
system.cpu.op_class_0::SimdMult                     0      0.00%     69.64% # Class of committed instruction
system.cpu.op_class_0::SimdMultAcc                  0      0.00%     69.64% # Class of committed instruction
system.cpu.op_class_0::SimdShift                    0      0.00%     69.64% # Class of committed instruction
system.cpu.op_class_0::SimdShiftAcc                 0      0.00%     69.64% # Class of committed instruction
system.cpu.op_class_0::SimdDiv                      0      0.00%     69.64% # Class of committed instruction
system.cpu.op_class_0::SimdSqrt                     0      0.00%     69.64% # Class of committed instruction
system.cpu.op_class_0::SimdFloatAdd                 0      0.00%     69.64% # Class of committed instruction
system.cpu.op_class_0::SimdFloatAlu                 0      0.00%     69.64% # Class of committed instruction
system.cpu.op_class_0::SimdFloatCmp                 0      0.00%     69.64% # Class of committed instruction
system.cpu.op_class_0::SimdFloatCvt                 0      0.00%     69.64% # Class of committed instruction
system.cpu.op_class_0::SimdFloatDiv                 0      0.00%     69.64% # Class of committed instruction
system.cpu.op_class_0::SimdFloatMisc                0      0.00%     69.64% # Class of committed instruction
system.cpu.op_class_0::SimdFloatMult                0      0.00%     69.64% # Class of committed instruction
system.cpu.op_class_0::SimdFloatMultAcc             0      0.00%     69.64% # Class of committed instruction
system.cpu.op_class_0::SimdFloatSqrt                0      0.00%     69.64% # Class of committed instruction
system.cpu.op_class_0::SimdReduceAdd                0      0.00%     69.64% # Class of committed instruction
system.cpu.op_class_0::SimdReduceAlu                0      0.00%     69.64% # Class of committed instruction
system.cpu.op_class_0::SimdReduceCmp                0      0.00%     69.64% # Class of committed instruction
system.cpu.op_class_0::SimdFloatReduceAdd            0      0.00%     69.64% # Class of committed instruction
system.cpu.op_class_0::SimdFloatReduceCmp            0      0.00%     69.64% # Class of committed instruction
system.cpu.op_class_0::SimdAes                      0      0.00%     69.64% # Class of committed instruction
system.cpu.op_class_0::SimdAesMix                   0      0.00%     69.64% # Class of committed instruction
system.cpu.op_class_0::SimdSha1Hash                 0      0.00%     69.64% # Class of committed instruction
system.cpu.op_class_0::SimdSha1Hash2                0      0.00%     69.64% # Class of committed instruction
system.cpu.op_class_0::SimdSha256Hash               0      0.00%     69.64% # Class of committed instruction
system.cpu.op_class_0::SimdSha256Hash2              0      0.00%     69.64% # Class of committed instruction
system.cpu.op_class_0::SimdShaSigma2                0      0.00%     69.64% # Class of committed instruction
system.cpu.op_class_0::SimdShaSigma3                0      0.00%     69.64% # Class of committed instruction
system.cpu.op_class_0::SimdPredAlu                  0      0.00%     69.64% # Class of committed instruction
system.cpu.op_class_0::MemRead                   7997     15.43%     85.06% # Class of committed instruction
system.cpu.op_class_0::MemWrite                  7743     14.94%    100.00% # Class of committed instruction
system.cpu.op_class_0::FloatMemRead                 0      0.00%    100.00% # Class of committed instruction
system.cpu.op_class_0::FloatMemWrite                0      0.00%    100.00% # Class of committed instruction
system.cpu.op_class_0::IprAccess                    0      0.00%    100.00% # Class of committed instruction
system.cpu.op_class_0::InstPrefetch                 0      0.00%    100.00% # Class of committed instruction
system.cpu.op_class_0::total                    51837                       # Class of committed instruction
system.cpu.tickCycles                          133264                       # Number of cycles that the object actually ticked
system.membus.snoop_filter.hit_multi_requests            0                       # Number of requests hitting in the snoop filter with multiple (>1) holders of the requested data.
system.membus.snoop_filter.hit_multi_snoops            0                       # Number of snoops hitting in the snoop filter with multiple (>1) holders of the requested data.
system.membus.snoop_filter.hit_single_requests            0                       # Number of requests hitting in the snoop filter with a single holder of the requested data.
system.membus.snoop_filter.hit_single_snoops            0                       # Number of snoops hitting in the snoop filter with a single holder of the requested data.
system.membus.snoop_filter.tot_requests             0                       # Total number of requests made to the snoop filter.
system.membus.snoop_filter.tot_snoops               0                       # Total number of snoops made to the snoop filter.
system.tol2bus.snoop_filter.hit_multi_requests            0                       # Number of requests hitting in the snoop filter with multiple (>1) holders of the requested data.
system.tol2bus.snoop_filter.hit_multi_snoops            0                       # Number of snoops hitting in the snoop filter with multiple (>1) holders of the requested data.
system.tol2bus.snoop_filter.hit_single_requests            0                       # Number of requests hitting in the snoop filter with a single holder of the requested data.
system.tol2bus.snoop_filter.hit_single_snoops            0                       # Number of snoops hitting in the snoop filter with a single holder of the requested data.
system.tol2bus.snoop_filter.tot_requests            0                       # Total number of requests made to the snoop filter.
system.tol2bus.snoop_filter.tot_snoops              0                       # Total number of snoops made to the snoop filter.
system.tol2bus.pwrStateResidencyTicks::UNDEFINED   1226941500                       # Cumulative time (in ticks) in various power states
system.tol2bus.trans_dist::ReadReq              22859                       # Transaction distribution
system.tol2bus.trans_dist::ReadResp             22859                       # Transaction distribution
system.tol2bus.trans_dist::WriteReq              7701                       # Transaction distribution
system.tol2bus.trans_dist::WriteResp             7701                       # Transaction distribution
system.tol2bus.pkt_count_system.cpu.icache.mem_side::system.l2.cpu_side        29806                       # Packet count per connected master and slave (bytes)
system.tol2bus.pkt_count_system.cpu.dcache.mem_side::system.l2.cpu_side        31314                       # Packet count per connected master and slave (bytes)
system.tol2bus.pkt_count::total                 61120                       # Packet count per connected master and slave (bytes)
system.tol2bus.pkt_size_system.cpu.icache.mem_side::system.l2.cpu_side       953792                       # Cumulative packet size per connected master and slave (bytes)
system.tol2bus.pkt_size_system.cpu.dcache.mem_side::system.l2.cpu_side        64618                       # Cumulative packet size per connected master and slave (bytes)
system.tol2bus.pkt_size::total                1018410                       # Cumulative packet size per connected master and slave (bytes)
system.tol2bus.snoops                               0                       # Total snoops (count)
system.tol2bus.snoopTraffic                         0                       # Total snoop traffic (bytes)
system.tol2bus.snoop_fanout::samples            30560                       # Request fanout histogram
system.tol2bus.snoop_fanout::mean                   0                       # Request fanout histogram
system.tol2bus.snoop_fanout::stdev                  0                       # Request fanout histogram
system.tol2bus.snoop_fanout::underflows             0      0.00%      0.00% # Request fanout histogram
system.tol2bus.snoop_fanout::0                  30560    100.00%    100.00% # Request fanout histogram
system.tol2bus.snoop_fanout::1                      0      0.00%    100.00% # Request fanout histogram
system.tol2bus.snoop_fanout::2                      0      0.00%    100.00% # Request fanout histogram
system.tol2bus.snoop_fanout::3                      0      0.00%    100.00% # Request fanout histogram
system.tol2bus.snoop_fanout::overflows              0      0.00%    100.00% # Request fanout histogram
system.tol2bus.snoop_fanout::min_value              0                       # Request fanout histogram
system.tol2bus.snoop_fanout::max_value              0                       # Request fanout histogram
system.tol2bus.snoop_fanout::total              30560                       # Request fanout histogram
system.tol2bus.reqLayer0.occupancy           19130500                       # Layer occupancy (ticks)
system.tol2bus.reqLayer0.utilization              1.6                       # Layer utilization (%)
system.tol2bus.respLayer1.occupancy          11806500                       # Layer occupancy (ticks)
system.tol2bus.respLayer1.utilization             1.0                       # Layer utilization (%)
system.tol2bus.respLayer0.occupancy          22354500                       # Layer occupancy (ticks)
system.tol2bus.respLayer0.utilization             1.9                       # Layer utilization (%)
system.bridge.pwrStateResidencyTicks::UNDEFINED   1226941500                       # Cumulative time (in ticks) in various power states
system.voltage_domain.voltage                       1                       # Voltage in Volts
system.iocache.pwrStateResidencyTicks::UNDEFINED   1226941500                       # Cumulative time (in ticks) in various power states
system.iocache.blocked_cycles::no_mshrs             0                       # number of cycles access was blocked
system.iocache.blocked_cycles::no_targets            0                       # number of cycles access was blocked
system.iocache.blocked::no_mshrs                    0                       # number of cycles access was blocked
system.iocache.blocked::no_targets                  0                       # number of cycles access was blocked
system.iocache.avg_blocked_cycles::no_mshrs          nan                       # average number of cycles each access was blocked
system.iocache.avg_blocked_cycles::no_targets          nan                       # average number of cycles each access was blocked
system.iocache.replacements                         0                       # number of replacements
system.iocache.tags.pwrStateResidencyTicks::UNDEFINED   1226941500                       # Cumulative time (in ticks) in various power states
system.iocache.tags.tagsinuse                       0                       # Cycle average of tags in use
system.iocache.tags.total_refs                      0                       # Total number of references to valid blocks.
system.iocache.tags.sampled_refs                    0                       # Sample count of references to valid blocks.
system.iocache.tags.avg_refs                      nan                       # Average number of references to valid blocks.
system.iocache.tags.warmup_cycle                    0                       # Cycle when the warmup percentage was hit.
system.iocache.tags.tag_accesses                    0                       # Number of tag accesses
system.iocache.tags.data_accesses                   0                       # Number of data accesses
system.membus.pwrStateResidencyTicks::UNDEFINED   1226941500                       # Cumulative time (in ticks) in various power states
system.membus.trans_dist::ReadReq               22859                       # Transaction distribution
system.membus.trans_dist::ReadResp              22859                       # Transaction distribution
system.membus.trans_dist::WriteReq               7701                       # Transaction distribution
system.membus.trans_dist::WriteResp              7701                       # Transaction distribution
system.membus.pkt_count_system.l2.mem_side::system.bridge.slave          104                       # Packet count per connected master and slave (bytes)
system.membus.pkt_count_system.l2.mem_side::system.realview.bootmem.port        30520                       # Packet count per connected master and slave (bytes)
system.membus.pkt_count_system.l2.mem_side::system.mem_ctrls.port        30496                       # Packet count per connected master and slave (bytes)
system.membus.pkt_count_system.l2.mem_side::total        61120                       # Packet count per connected master and slave (bytes)
system.membus.pkt_count::total                  61120                       # Packet count per connected master and slave (bytes)
system.membus.pkt_size_system.l2.mem_side::system.bridge.slave          208                       # Cumulative packet size per connected master and slave (bytes)
system.membus.pkt_size_system.l2.mem_side::system.realview.bootmem.port       954692                       # Cumulative packet size per connected master and slave (bytes)
system.membus.pkt_size_system.l2.mem_side::system.mem_ctrls.port        63510                       # Cumulative packet size per connected master and slave (bytes)
system.membus.pkt_size_system.l2.mem_side::total      1018410                       # Cumulative packet size per connected master and slave (bytes)
system.membus.pkt_size::total                 1018410                       # Cumulative packet size per connected master and slave (bytes)
system.membus.snoops                                0                       # Total snoops (count)
system.membus.snoopTraffic                          0                       # Total snoop traffic (bytes)
system.membus.snoop_fanout::samples             30731                       # Request fanout histogram
system.membus.snoop_fanout::mean                    0                       # Request fanout histogram
system.membus.snoop_fanout::stdev                   0                       # Request fanout histogram
system.membus.snoop_fanout::underflows              0      0.00%      0.00% # Request fanout histogram
system.membus.snoop_fanout::0                   30731    100.00%    100.00% # Request fanout histogram
system.membus.snoop_fanout::1                       0      0.00%    100.00% # Request fanout histogram
system.membus.snoop_fanout::2                       0      0.00%    100.00% # Request fanout histogram
system.membus.snoop_fanout::overflows               0      0.00%    100.00% # Request fanout histogram
system.membus.snoop_fanout::min_value               0                       # Request fanout histogram
system.membus.snoop_fanout::max_value               0                       # Request fanout histogram
system.membus.snoop_fanout::total               30731                       # Request fanout histogram
system.membus.reqLayer6.occupancy            27118000                       # Layer occupancy (ticks)
system.membus.reqLayer6.utilization               2.3                       # Layer utilization (%)
system.membus.reqLayer0.occupancy              107500                       # Layer occupancy (ticks)
system.membus.reqLayer0.utilization               0.0                       # Layer utilization (%)
system.membus.reqLayer1.occupancy            16306200                       # Layer occupancy (ticks)
system.membus.reqLayer1.utilization               1.4                       # Layer utilization (%)
system.membus.badaddr_responder.pwrStateResidencyTicks::UNDEFINED   1226941500                       # Cumulative time (in ticks) in various power states
system.membus.respLayer3.occupancy           99909750                       # Layer occupancy (ticks)
system.membus.respLayer3.utilization              8.5                       # Layer utilization (%)
system.acctest.dma.pwrStateResidencyTicks::UNDEFINED   1226941500                       # Cumulative time (in ticks) in various power states
system.acctest.argmax.pwrStateResidencyTicks::UNDEFINED   1226941500                       # Cumulative time (in ticks) in various power states
system.acctest.top.pwrStateResidencyTicks::UNDEFINED   1226941500                       # Cumulative time (in ticks) in various power states
system.acctest.stream_dma_0.pwrStateResidencyTicks::UNDEFINED   1226941500                       # Cumulative time (in ticks) in various power states
system.acctest.stream_dma_1.pwrStateResidencyTicks::UNDEFINED   1226941500                       # Cumulative time (in ticks) in various power states
system.acctest.coherency_bus.pwrStateResidencyTicks::UNDEFINED   1226941500                       # Cumulative time (in ticks) in various power states
system.acctest.coherency_bus.snoops                 0                       # Total snoops (count)
system.acctest.coherency_bus.snoopTraffic            0                       # Total snoop traffic (bytes)
system.acctest.coherency_bus.snoop_fanout::samples            0                       # Request fanout histogram
system.acctest.coherency_bus.snoop_fanout::mean          nan                       # Request fanout histogram
system.acctest.coherency_bus.snoop_fanout::stdev          nan                       # Request fanout histogram
system.acctest.coherency_bus.snoop_fanout::underflows            0                       # Request fanout histogram
system.acctest.coherency_bus.snoop_fanout::0            0                       # Request fanout histogram
system.acctest.coherency_bus.snoop_fanout::overflows            0                       # Request fanout histogram
system.acctest.coherency_bus.snoop_fanout::min_value            0                       # Request fanout histogram
system.acctest.coherency_bus.snoop_fanout::max_value            0                       # Request fanout histogram
system.acctest.coherency_bus.snoop_fanout::total            0                       # Request fanout histogram
system.acctest.mem2cls.pwrStateResidencyTicks::UNDEFINED   1226941500                       # Cumulative time (in ticks) in various power states
system.acctest.local_bus.pwrStateResidencyTicks::UNDEFINED   1226941500                       # Cumulative time (in ticks) in various power states
system.acctest.argmax_spm.pwrStateResidencyTicks::UNDEFINED   1226941500                       # Cumulative time (in ticks) in various power states
system.clk_domain.clock                          1000                       # Clock period in ticks
system.realview.hdlcd.pwrStateResidencyTicks::UNDEFINED   1226941500                       # Cumulative time (in ticks) in various power states
system.realview.realview_io.pwrStateResidencyTicks::UNDEFINED   1226941500                       # Cumulative time (in ticks) in various power states
system.realview.bootmem.pwrStateResidencyTicks::UNDEFINED   1226941500                       # Cumulative time (in ticks) in various power states
system.realview.bootmem.bytes_read::.cpu.inst       953792                       # Number of bytes read from this memory
system.realview.bootmem.bytes_read::.cpu.data          900                       # Number of bytes read from this memory
system.realview.bootmem.bytes_read::total       954692                       # Number of bytes read from this memory
system.realview.bootmem.bytes_inst_read::.cpu.inst       953792                       # Number of instructions bytes read from this memory
system.realview.bootmem.bytes_inst_read::total       953792                       # Number of instructions bytes read from this memory
system.realview.bootmem.num_reads::.cpu.inst        14903                       # Number of read requests responded to by this memory
system.realview.bootmem.num_reads::.cpu.data          357                       # Number of read requests responded to by this memory
system.realview.bootmem.num_reads::total        15260                       # Number of read requests responded to by this memory
system.realview.bootmem.bw_read::.cpu.inst    810118669                       # Total read bandwidth from this memory (bytes/s)
system.realview.bootmem.bw_read::.cpu.data       764430                       # Total read bandwidth from this memory (bytes/s)
system.realview.bootmem.bw_read::total      810883099                       # Total read bandwidth from this memory (bytes/s)
system.realview.bootmem.bw_inst_read::.cpu.inst    810118669                       # Instruction read bandwidth from this memory (bytes/s)
system.realview.bootmem.bw_inst_read::total    810118669                       # Instruction read bandwidth from this memory (bytes/s)
system.realview.bootmem.bw_total::.cpu.inst    810118669                       # Total bandwidth to/from this memory (bytes/s)
system.realview.bootmem.bw_total::.cpu.data       764430                       # Total bandwidth to/from this memory (bytes/s)
system.realview.bootmem.bw_total::total     810883099                       # Total bandwidth to/from this memory (bytes/s)
system.realview.pci_host.pwrStateResidencyTicks::UNDEFINED   1226941500                       # Cumulative time (in ticks) in various power states
system.realview.rtc.pwrStateResidencyTicks::UNDEFINED   1226941500                       # Cumulative time (in ticks) in various power states
system.realview.uart.pwrStateResidencyTicks::UNDEFINED   1226941500                       # Cumulative time (in ticks) in various power states
system.realview.gicv2m.pwrStateResidencyTicks::UNDEFINED   1226941500                       # Cumulative time (in ticks) in various power states
system.realview.mcc.osc_mcc.clock               20000                       # Clock period in ticks
system.realview.mcc.osc_peripheral.clock        41667                       # Clock period in ticks
system.realview.mcc.osc_clcd.clock              42105                       # Clock period in ticks
system.realview.mcc.osc_system_bus.clock        41667                       # Clock period in ticks
system.realview.dcc.osc_smb.clock               20000                       # Clock period in ticks
system.realview.dcc.osc_hsbm.clock              25000                       # Clock period in ticks
system.realview.dcc.osc_ddr.clock               25000                       # Clock period in ticks
system.realview.dcc.osc_cpu.clock               16667                       # Clock period in ticks
system.realview.dcc.osc_sys.clock               16667                       # Clock period in ticks
system.realview.dcc.osc_pxl.clock               42105                       # Clock period in ticks
system.realview.generic_timer.pwrStateResidencyTicks::UNDEFINED   1226941500                       # Cumulative time (in ticks) in various power states
system.realview.kmi1.pwrStateResidencyTicks::UNDEFINED   1226941500                       # Cumulative time (in ticks) in various power states
system.realview.kmi0.pwrStateResidencyTicks::UNDEFINED   1226941500                       # Cumulative time (in ticks) in various power states
system.realview.gic.pwrStateResidencyTicks::UNDEFINED   1226941500                       # Cumulative time (in ticks) in various power states
system.realview.clock24MHz.clock                41667                       # Clock period in ticks
system.realview.clock24MHz.voltage_domain.voltage     3.300000                       # Voltage in Volts
system.realview.energy_ctrl.pwrStateResidencyTicks::UNDEFINED   1226941500                       # Cumulative time (in ticks) in various power states
system.realview.vio1.pwrStateResidencyTicks::UNDEFINED   1226941500                       # Cumulative time (in ticks) in various power states
system.realview.vio0.pwrStateResidencyTicks::UNDEFINED   1226941500                       # Cumulative time (in ticks) in various power states
system.realview.vgic.pwrStateResidencyTicks::UNDEFINED   1226941500                       # Cumulative time (in ticks) in various power states
system.pci_ide.pwrStateResidencyTicks::UNDEFINED   1226941500                       # Cumulative time (in ticks) in various power states
system.l2.pwrStateResidencyTicks::UNDEFINED   1226941500                       # Cumulative time (in ticks) in various power states
system.l2.blocked_cycles::no_mshrs                  0                       # number of cycles access was blocked
system.l2.blocked_cycles::no_targets                0                       # number of cycles access was blocked
system.l2.blocked::no_mshrs                         0                       # number of cycles access was blocked
system.l2.blocked::no_targets                       0                       # number of cycles access was blocked
system.l2.avg_blocked_cycles::no_mshrs            nan                       # average number of cycles each access was blocked
system.l2.avg_blocked_cycles::no_targets          nan                       # average number of cycles each access was blocked
system.l2.overall_mshr_uncacheable_misses::.cpu.inst        14903                       # number of overall MSHR uncacheable misses
system.l2.overall_mshr_uncacheable_misses::.cpu.data        15657                       # number of overall MSHR uncacheable misses
system.l2.overall_mshr_uncacheable_misses::total        30560                       # number of overall MSHR uncacheable misses
system.l2.overall_mshr_uncacheable_latency::.cpu.inst    753670500                       # number of overall MSHR uncacheable cycles
system.l2.overall_mshr_uncacheable_latency::.cpu.data    480829500                       # number of overall MSHR uncacheable cycles
system.l2.overall_mshr_uncacheable_latency::total   1234500000                       # number of overall MSHR uncacheable cycles
system.l2.overall_avg_mshr_uncacheable_latency::.cpu.inst 50571.730524                       # average overall mshr uncacheable latency
system.l2.overall_avg_mshr_uncacheable_latency::.cpu.data 30710.193524                       # average overall mshr uncacheable latency
system.l2.overall_avg_mshr_uncacheable_latency::total 40395.942408                       # average overall mshr uncacheable latency
system.l2.replacements                              0                       # number of replacements
system.l2.ReadReq_mshr_uncacheable::.cpu.inst        14903                       # number of ReadReq MSHR uncacheable
system.l2.ReadReq_mshr_uncacheable::.cpu.data         7956                       # number of ReadReq MSHR uncacheable
system.l2.ReadReq_mshr_uncacheable::total        22859                       # number of ReadReq MSHR uncacheable
system.l2.ReadReq_mshr_uncacheable_latency::.cpu.inst    753670500                       # number of ReadReq MSHR uncacheable cycles
system.l2.ReadReq_mshr_uncacheable_latency::.cpu.data    480829500                       # number of ReadReq MSHR uncacheable cycles
system.l2.ReadReq_mshr_uncacheable_latency::total   1234500000                       # number of ReadReq MSHR uncacheable cycles
system.l2.ReadReq_avg_mshr_uncacheable_latency::.cpu.inst 50571.730524                       # average ReadReq mshr uncacheable latency
system.l2.ReadReq_avg_mshr_uncacheable_latency::.cpu.data 60436.085973                       # average ReadReq mshr uncacheable latency
system.l2.ReadReq_avg_mshr_uncacheable_latency::total 54004.987095                       # average ReadReq mshr uncacheable latency
system.l2.WriteReq_mshr_uncacheable::.cpu.data         7701                       # number of WriteReq MSHR uncacheable
system.l2.WriteReq_mshr_uncacheable::total         7701                       # number of WriteReq MSHR uncacheable
system.l2.tags.pwrStateResidencyTicks::UNDEFINED   1226941500                       # Cumulative time (in ticks) in various power states
system.l2.tags.tagsinuse                            0                       # Cycle average of tags in use
system.l2.tags.total_refs                           0                       # Total number of references to valid blocks.
system.l2.tags.sampled_refs                         0                       # Sample count of references to valid blocks.
system.l2.tags.avg_refs                           nan                       # Average number of references to valid blocks.
system.l2.tags.warmup_cycle                         0                       # Cycle when the warmup percentage was hit.
system.l2.tags.tag_accesses                         0                       # Number of tag accesses
system.l2.tags.data_accesses                        0                       # Number of data accesses
system.cpu_voltage_domain.voltage                   1                       # Voltage in Volts
system.mem_ctrls.pwrStateResidencyTicks::UNDEFINED   1226941500                       # Cumulative time (in ticks) in various power states
system.mem_ctrls.bytes_read::.cpu.data          33240                       # Number of bytes read from this memory
system.mem_ctrls.bytes_read::total              33240                       # Number of bytes read from this memory
system.mem_ctrls.bytes_written::.cpu.data        30270                       # Number of bytes written to this memory
system.mem_ctrls.bytes_written::total           30270                       # Number of bytes written to this memory
system.mem_ctrls.num_reads::.cpu.data            7599                       # Number of read requests responded to by this memory
system.mem_ctrls.num_reads::total                7599                       # Number of read requests responded to by this memory
system.mem_ctrls.num_writes::.cpu.data           7649                       # Number of write requests responded to by this memory
system.mem_ctrls.num_writes::total               7649                       # Number of write requests responded to by this memory
system.mem_ctrls.bw_read::.cpu.data          28232932                       # Total read bandwidth from this memory (bytes/s)
system.mem_ctrls.bw_read::total              28232932                       # Total read bandwidth from this memory (bytes/s)
system.mem_ctrls.bw_write::.cpu.data         25710314                       # Write bandwidth from this memory (bytes/s)
system.mem_ctrls.bw_write::total             25710314                       # Write bandwidth from this memory (bytes/s)
system.mem_ctrls.bw_total::.cpu.data         53943246                       # Total bandwidth to/from this memory (bytes/s)
system.mem_ctrls.bw_total::total             53943246                       # Total bandwidth to/from this memory (bytes/s)
system.mem_ctrls.avgPriority_.cpu.data::samples      6912.00                       # Average QoS priority value for accepted requests
system.mem_ctrls.priorityMinLatency      0.000000018750                       # per QoS priority minimum request to response latency (s)
system.mem_ctrls.priorityMaxLatency      0.002294247750                       # per QoS priority maximum request to response latency (s)
system.mem_ctrls.numReadWriteTurnArounds            2                       # Number of turnarounds from READ to WRITE
system.mem_ctrls.numWriteReadTurnArounds            2                       # Number of turnarounds from WRITE to READ
system.mem_ctrls.numStayReadState               21714                       # Number of times bus staying in READ state
system.mem_ctrls.numStayWriteState                 32                       # Number of times bus staying in WRITE state
system.mem_ctrls.readReqs                        7599                       # Number of read requests accepted
system.mem_ctrls.writeReqs                       7649                       # Number of write requests accepted
system.mem_ctrls.readBursts                      7599                       # Number of DRAM read bursts, including those serviced by the write queue
system.mem_ctrls.writeBursts                     7649                       # Number of DRAM write bursts, including those merged in the write queue
system.mem_ctrls.servicedByWrQ                    717                       # Number of DRAM read bursts serviced by the write queue
system.mem_ctrls.mergedWrBursts                  7619                       # Number of DRAM write bursts merged with an existing one
system.mem_ctrls.neitherReadNorWriteReqs            0                       # Number of requests that are neither read nor write
system.mem_ctrls.perBankRdBursts::0              6882                       # Per bank write bursts
system.mem_ctrls.perBankRdBursts::1                 0                       # Per bank write bursts
system.mem_ctrls.perBankRdBursts::2                 0                       # Per bank write bursts
system.mem_ctrls.perBankRdBursts::3                 0                       # Per bank write bursts
system.mem_ctrls.perBankRdBursts::4                 0                       # Per bank write bursts
system.mem_ctrls.perBankRdBursts::5                 0                       # Per bank write bursts
system.mem_ctrls.perBankRdBursts::6                 0                       # Per bank write bursts
system.mem_ctrls.perBankRdBursts::7                 0                       # Per bank write bursts
system.mem_ctrls.perBankRdBursts::8                 0                       # Per bank write bursts
system.mem_ctrls.perBankRdBursts::9                 0                       # Per bank write bursts
system.mem_ctrls.perBankRdBursts::10                0                       # Per bank write bursts
system.mem_ctrls.perBankRdBursts::11                0                       # Per bank write bursts
system.mem_ctrls.perBankRdBursts::12                0                       # Per bank write bursts
system.mem_ctrls.perBankRdBursts::13                0                       # Per bank write bursts
system.mem_ctrls.perBankRdBursts::14                0                       # Per bank write bursts
system.mem_ctrls.perBankRdBursts::15                0                       # Per bank write bursts
system.mem_ctrls.perBankWrBursts::0                34                       # Per bank write bursts
system.mem_ctrls.perBankWrBursts::1                 0                       # Per bank write bursts
system.mem_ctrls.perBankWrBursts::2                 0                       # Per bank write bursts
system.mem_ctrls.perBankWrBursts::3                 0                       # Per bank write bursts
system.mem_ctrls.perBankWrBursts::4                 0                       # Per bank write bursts
system.mem_ctrls.perBankWrBursts::5                 0                       # Per bank write bursts
system.mem_ctrls.perBankWrBursts::6                 0                       # Per bank write bursts
system.mem_ctrls.perBankWrBursts::7                 0                       # Per bank write bursts
system.mem_ctrls.perBankWrBursts::8                 0                       # Per bank write bursts
system.mem_ctrls.perBankWrBursts::9                 0                       # Per bank write bursts
system.mem_ctrls.perBankWrBursts::10                0                       # Per bank write bursts
system.mem_ctrls.perBankWrBursts::11                0                       # Per bank write bursts
system.mem_ctrls.perBankWrBursts::12                0                       # Per bank write bursts
system.mem_ctrls.perBankWrBursts::13                0                       # Per bank write bursts
system.mem_ctrls.perBankWrBursts::14                0                       # Per bank write bursts
system.mem_ctrls.perBankWrBursts::15                0                       # Per bank write bursts
system.mem_ctrls.avgRdQLen                       1.00                       # Average read queue length when enqueuing
system.mem_ctrls.avgWrQLen                      29.02                       # Average write queue length when enqueuing
system.mem_ctrls.totQLat                     28965250                       # Total ticks spent queuing
system.mem_ctrls.totBusLat                   34410000                       # Total ticks spent in databus transfers
system.mem_ctrls.totMemAccLat               158002750                       # Total ticks spent from burst creation until serviced by the DRAM
system.mem_ctrls.avgQLat                      4208.84                       # Average queueing delay per DRAM burst
system.mem_ctrls.avgBusLat                    5000.00                       # Average bus latency per DRAM burst
system.mem_ctrls.avgMemAccLat                22958.84                       # Average memory access latency per DRAM burst
system.mem_ctrls.numRdRetry                         0                       # Number of times read queue was full causing retry
system.mem_ctrls.numWrRetry                         0                       # Number of times write queue was full causing retry
system.mem_ctrls.readRowHits                     6373                       # Number of row buffer hits during reads
system.mem_ctrls.writeRowHits                      31                       # Number of row buffer hits during writes
system.mem_ctrls.readRowHitRate                 92.60                       # Row buffer hit rate for reads
system.mem_ctrls.writeRowHitRate               103.33                       # Row buffer hit rate for writes
system.mem_ctrls.readPktSize::0                   144                       # Read request sizes (log2)
system.mem_ctrls.readPktSize::1                   222                       # Read request sizes (log2)
system.mem_ctrls.readPktSize::2                  6303                       # Read request sizes (log2)
system.mem_ctrls.readPktSize::3                   930                       # Read request sizes (log2)
system.mem_ctrls.readPktSize::4                     0                       # Read request sizes (log2)
system.mem_ctrls.readPktSize::5                     0                       # Read request sizes (log2)
system.mem_ctrls.readPktSize::6                     0                       # Read request sizes (log2)
system.mem_ctrls.writePktSize::0                   74                       # Write request sizes (log2)
system.mem_ctrls.writePktSize::1                   52                       # Write request sizes (log2)
system.mem_ctrls.writePktSize::2                 7523                       # Write request sizes (log2)
system.mem_ctrls.writePktSize::3                    0                       # Write request sizes (log2)
system.mem_ctrls.writePktSize::4                    0                       # Write request sizes (log2)
system.mem_ctrls.writePktSize::5                    0                       # Write request sizes (log2)
system.mem_ctrls.writePktSize::6                    0                       # Write request sizes (log2)
system.mem_ctrls.rdQLenPdf::0                    6838                       # What read queue length does an incoming req see
system.mem_ctrls.rdQLenPdf::1                      44                       # What read queue length does an incoming req see
system.mem_ctrls.rdQLenPdf::2                       0                       # What read queue length does an incoming req see
system.mem_ctrls.rdQLenPdf::3                       0                       # What read queue length does an incoming req see
system.mem_ctrls.rdQLenPdf::4                       0                       # What read queue length does an incoming req see
system.mem_ctrls.rdQLenPdf::5                       0                       # What read queue length does an incoming req see
system.mem_ctrls.rdQLenPdf::6                       0                       # What read queue length does an incoming req see
system.mem_ctrls.rdQLenPdf::7                       0                       # What read queue length does an incoming req see
system.mem_ctrls.rdQLenPdf::8                       0                       # What read queue length does an incoming req see
system.mem_ctrls.rdQLenPdf::9                       0                       # What read queue length does an incoming req see
system.mem_ctrls.rdQLenPdf::10                      0                       # What read queue length does an incoming req see
system.mem_ctrls.rdQLenPdf::11                      0                       # What read queue length does an incoming req see
system.mem_ctrls.rdQLenPdf::12                      0                       # What read queue length does an incoming req see
system.mem_ctrls.rdQLenPdf::13                      0                       # What read queue length does an incoming req see
system.mem_ctrls.rdQLenPdf::14                      0                       # What read queue length does an incoming req see
system.mem_ctrls.rdQLenPdf::15                      0                       # What read queue length does an incoming req see
system.mem_ctrls.rdQLenPdf::16                      0                       # What read queue length does an incoming req see
system.mem_ctrls.rdQLenPdf::17                      0                       # What read queue length does an incoming req see
system.mem_ctrls.rdQLenPdf::18                      0                       # What read queue length does an incoming req see
system.mem_ctrls.rdQLenPdf::19                      0                       # What read queue length does an incoming req see
system.mem_ctrls.rdQLenPdf::20                      0                       # What read queue length does an incoming req see
system.mem_ctrls.rdQLenPdf::21                      0                       # What read queue length does an incoming req see
system.mem_ctrls.rdQLenPdf::22                      0                       # What read queue length does an incoming req see
system.mem_ctrls.rdQLenPdf::23                      0                       # What read queue length does an incoming req see
system.mem_ctrls.rdQLenPdf::24                      0                       # What read queue length does an incoming req see
system.mem_ctrls.rdQLenPdf::25                      0                       # What read queue length does an incoming req see
system.mem_ctrls.rdQLenPdf::26                      0                       # What read queue length does an incoming req see
system.mem_ctrls.rdQLenPdf::27                      0                       # What read queue length does an incoming req see
system.mem_ctrls.rdQLenPdf::28                      0                       # What read queue length does an incoming req see
system.mem_ctrls.rdQLenPdf::29                      0                       # What read queue length does an incoming req see
system.mem_ctrls.rdQLenPdf::30                      0                       # What read queue length does an incoming req see
system.mem_ctrls.rdQLenPdf::31                      0                       # What read queue length does an incoming req see
system.mem_ctrls.wrQLenPdf::0                       0                       # What write queue length does an incoming req see
system.mem_ctrls.wrQLenPdf::1                       0                       # What write queue length does an incoming req see
system.mem_ctrls.wrQLenPdf::2                       0                       # What write queue length does an incoming req see
system.mem_ctrls.wrQLenPdf::3                       0                       # What write queue length does an incoming req see
system.mem_ctrls.wrQLenPdf::4                       0                       # What write queue length does an incoming req see
system.mem_ctrls.wrQLenPdf::5                       0                       # What write queue length does an incoming req see
system.mem_ctrls.wrQLenPdf::6                       0                       # What write queue length does an incoming req see
system.mem_ctrls.wrQLenPdf::7                       0                       # What write queue length does an incoming req see
system.mem_ctrls.wrQLenPdf::8                       0                       # What write queue length does an incoming req see
system.mem_ctrls.wrQLenPdf::9                       0                       # What write queue length does an incoming req see
system.mem_ctrls.wrQLenPdf::10                      0                       # What write queue length does an incoming req see
system.mem_ctrls.wrQLenPdf::11                      0                       # What write queue length does an incoming req see
system.mem_ctrls.wrQLenPdf::12                      0                       # What write queue length does an incoming req see
system.mem_ctrls.wrQLenPdf::13                      0                       # What write queue length does an incoming req see
system.mem_ctrls.wrQLenPdf::14                      0                       # What write queue length does an incoming req see
system.mem_ctrls.wrQLenPdf::15                      1                       # What write queue length does an incoming req see
system.mem_ctrls.wrQLenPdf::16                      1                       # What write queue length does an incoming req see
system.mem_ctrls.wrQLenPdf::17                      2                       # What write queue length does an incoming req see
system.mem_ctrls.wrQLenPdf::18                      2                       # What write queue length does an incoming req see
system.mem_ctrls.wrQLenPdf::19                      2                       # What write queue length does an incoming req see
system.mem_ctrls.wrQLenPdf::20                      1                       # What write queue length does an incoming req see
system.mem_ctrls.wrQLenPdf::21                      1                       # What write queue length does an incoming req see
system.mem_ctrls.wrQLenPdf::22                      1                       # What write queue length does an incoming req see
system.mem_ctrls.wrQLenPdf::23                      1                       # What write queue length does an incoming req see
system.mem_ctrls.wrQLenPdf::24                      2                       # What write queue length does an incoming req see
system.mem_ctrls.wrQLenPdf::25                      2                       # What write queue length does an incoming req see
system.mem_ctrls.wrQLenPdf::26                      2                       # What write queue length does an incoming req see
system.mem_ctrls.wrQLenPdf::27                      2                       # What write queue length does an incoming req see
system.mem_ctrls.wrQLenPdf::28                      2                       # What write queue length does an incoming req see
system.mem_ctrls.wrQLenPdf::29                      2                       # What write queue length does an incoming req see
system.mem_ctrls.wrQLenPdf::30                      2                       # What write queue length does an incoming req see
system.mem_ctrls.wrQLenPdf::31                      2                       # What write queue length does an incoming req see
system.mem_ctrls.wrQLenPdf::32                      2                       # What write queue length does an incoming req see
system.mem_ctrls.wrQLenPdf::33                      0                       # What write queue length does an incoming req see
system.mem_ctrls.wrQLenPdf::34                      0                       # What write queue length does an incoming req see
system.mem_ctrls.wrQLenPdf::35                      0                       # What write queue length does an incoming req see
system.mem_ctrls.wrQLenPdf::36                      0                       # What write queue length does an incoming req see
system.mem_ctrls.wrQLenPdf::37                      0                       # What write queue length does an incoming req see
system.mem_ctrls.wrQLenPdf::38                      0                       # What write queue length does an incoming req see
system.mem_ctrls.wrQLenPdf::39                      0                       # What write queue length does an incoming req see
system.mem_ctrls.wrQLenPdf::40                      0                       # What write queue length does an incoming req see
system.mem_ctrls.wrQLenPdf::41                      0                       # What write queue length does an incoming req see
system.mem_ctrls.wrQLenPdf::42                      0                       # What write queue length does an incoming req see
system.mem_ctrls.wrQLenPdf::43                      0                       # What write queue length does an incoming req see
system.mem_ctrls.wrQLenPdf::44                      0                       # What write queue length does an incoming req see
system.mem_ctrls.wrQLenPdf::45                      0                       # What write queue length does an incoming req see
system.mem_ctrls.wrQLenPdf::46                      0                       # What write queue length does an incoming req see
system.mem_ctrls.wrQLenPdf::47                      0                       # What write queue length does an incoming req see
system.mem_ctrls.wrQLenPdf::48                      0                       # What write queue length does an incoming req see
system.mem_ctrls.wrQLenPdf::49                      0                       # What write queue length does an incoming req see
system.mem_ctrls.wrQLenPdf::50                      0                       # What write queue length does an incoming req see
system.mem_ctrls.wrQLenPdf::51                      0                       # What write queue length does an incoming req see
system.mem_ctrls.wrQLenPdf::52                      0                       # What write queue length does an incoming req see
system.mem_ctrls.wrQLenPdf::53                      0                       # What write queue length does an incoming req see
system.mem_ctrls.wrQLenPdf::54                      0                       # What write queue length does an incoming req see
system.mem_ctrls.wrQLenPdf::55                      0                       # What write queue length does an incoming req see
system.mem_ctrls.wrQLenPdf::56                      0                       # What write queue length does an incoming req see
system.mem_ctrls.wrQLenPdf::57                      0                       # What write queue length does an incoming req see
system.mem_ctrls.wrQLenPdf::58                      0                       # What write queue length does an incoming req see
system.mem_ctrls.wrQLenPdf::59                      0                       # What write queue length does an incoming req see
system.mem_ctrls.wrQLenPdf::60                      0                       # What write queue length does an incoming req see
system.mem_ctrls.wrQLenPdf::61                      0                       # What write queue length does an incoming req see
system.mem_ctrls.wrQLenPdf::62                      0                       # What write queue length does an incoming req see
system.mem_ctrls.wrQLenPdf::63                      0                       # What write queue length does an incoming req see
system.mem_ctrls.bytesPerActivate::samples          512                       # Bytes accessed per row activation
system.mem_ctrls.bytesPerActivate::mean           866                       # Bytes accessed per row activation
system.mem_ctrls.bytesPerActivate::gmean   765.590804                       # Bytes accessed per row activation
system.mem_ctrls.bytesPerActivate::stdev   291.592295                       # Bytes accessed per row activation
system.mem_ctrls.bytesPerActivate::0-127            9      1.76%      1.76% # Bytes accessed per row activation
system.mem_ctrls.bytesPerActivate::128-255           29      5.66%      7.42% # Bytes accessed per row activation
system.mem_ctrls.bytesPerActivate::256-383           21      4.10%     11.52% # Bytes accessed per row activation
system.mem_ctrls.bytesPerActivate::384-511           17      3.32%     14.84% # Bytes accessed per row activation
system.mem_ctrls.bytesPerActivate::512-639           20      3.91%     18.75% # Bytes accessed per row activation
system.mem_ctrls.bytesPerActivate::640-767           18      3.52%     22.27% # Bytes accessed per row activation
system.mem_ctrls.bytesPerActivate::768-895           16      3.12%     25.39% # Bytes accessed per row activation
system.mem_ctrls.bytesPerActivate::896-1023           14      2.73%     28.12% # Bytes accessed per row activation
system.mem_ctrls.bytesPerActivate::1024-1151          368     71.88%    100.00% # Bytes accessed per row activation
system.mem_ctrls.bytesPerActivate::total          512                       # Bytes accessed per row activation
system.mem_ctrls.rdPerTurnAround::samples            2                       # Reads before turning the bus around for writes
system.mem_ctrls.rdPerTurnAround::mean           3388                       # Reads before turning the bus around for writes
system.mem_ctrls.rdPerTurnAround::gmean   3137.715730                       # Reads before turning the bus around for writes
system.mem_ctrls.rdPerTurnAround::stdev   1807.364933                       # Reads before turning the bus around for writes
system.mem_ctrls.rdPerTurnAround::2048-2303            1     50.00%     50.00% # Reads before turning the bus around for writes
system.mem_ctrls.rdPerTurnAround::4608-4863            1     50.00%    100.00% # Reads before turning the bus around for writes
system.mem_ctrls.rdPerTurnAround::total             2                       # Reads before turning the bus around for writes
system.mem_ctrls.wrPerTurnAround::samples            2                       # Writes before turning the bus around for reads
system.mem_ctrls.wrPerTurnAround::mean             17                       # Writes before turning the bus around for reads
system.mem_ctrls.wrPerTurnAround::gmean     16.970563                       # Writes before turning the bus around for reads
system.mem_ctrls.wrPerTurnAround::stdev      1.414214                       # Writes before turning the bus around for reads
system.mem_ctrls.wrPerTurnAround::16                1     50.00%     50.00% # Writes before turning the bus around for reads
system.mem_ctrls.wrPerTurnAround::18                1     50.00%    100.00% # Writes before turning the bus around for reads
system.mem_ctrls.wrPerTurnAround::total             2                       # Writes before turning the bus around for reads
system.mem_ctrls.bytesReadDRAM                 440448                       # Total number of bytes read from DRAM
system.mem_ctrls.bytesReadWrQ                   45888                       # Total number of bytes read from write queue
system.mem_ctrls.bytesWritten                    2176                       # Total number of bytes written to DRAM
system.mem_ctrls.bytesReadSys                   33240                       # Total read bytes from the system interface side
system.mem_ctrls.bytesWrittenSys                30270                       # Total written bytes from the system interface side
system.mem_ctrls.avgRdBW                       374.10                       # Average DRAM read bandwidth in MiByte/s
system.mem_ctrls.avgWrBW                         1.85                       # Average achieved write bandwidth in MiByte/s
system.mem_ctrls.avgRdBWSys                     28.23                       # Average system read bandwidth in MiByte/s
system.mem_ctrls.avgWrBWSys                     25.71                       # Average system write bandwidth in MiByte/s
system.mem_ctrls.peakBW                      12800.00                       # Theoretical peak bandwidth in MiByte/s
system.mem_ctrls.busUtil                         2.94                       # Data bus utilization in percentage
system.mem_ctrls.busUtilRead                     2.92                       # Data bus utilization in percentage for reads
system.mem_ctrls.busUtilWrite                    0.01                       # Data bus utilization in percentage for writes
system.mem_ctrls.totGap                    1177202000                       # Total gap between requests
system.mem_ctrls.avgGap                      77203.70                       # Average gap between requests
system.mem_ctrls.masterReadBytes::.cpu.data        30618                       # Per-master bytes read from memory
system.mem_ctrls.masterWriteBytes::.cpu.data          136                       # Per-master bytes write to memory
system.mem_ctrls.masterReadRate::.cpu.data 26005893.751934960485                       # Per-master bytes read from memory rate (Bytes/sec)
system.mem_ctrls.masterWriteRate::.cpu.data 115513.800714062134                       # Per-master bytes write to memory rate (Bytes/sec)
system.mem_ctrls.masterReadAccesses::.cpu.data         7599                       # Per-master read serviced memory accesses
system.mem_ctrls.masterWriteAccesses::.cpu.data         7649                       # Per-master write serviced memory accesses
system.mem_ctrls.masterReadTotalLat::.cpu.data    158002750                       # Per-master read total memory access latency
system.mem_ctrls.masterWriteTotalLat::.cpu.data  27824143500                       # Per-master write total memory access latency
system.mem_ctrls.masterReadAvgLat::.cpu.data     20792.57                       # Per-master read average memory access latency
[...]
system.mem_ctrls.bytesPerActivate::512-639           20      3.91%     18.75% # Bytes accessed per row activation
system.mem_ctrls.bytesPerActivate::640-767           18      3.52%     22.27% # Bytes accessed per row activation
system.mem_ctrls.bytesPerActivate::768-895           16      3.12%     25.39% # Bytes accessed per row activation
system.mem_ctrls.bytesPerActivate::896-1023           14      2.73%     28.12% # Bytes accessed per row activation
system.mem_ctrls.bytesPerActivate::1024-1151          368     71.88%    100.00% # Bytes accessed per row activation
system.mem_ctrls.bytesPerActivate::total          512                       # Bytes accessed per row activation
system.mem_ctrls.rdPerTurnAround::samples            2                       # Reads before turning the bus around for writes
system.mem_ctrls.rdPerTurnAround::mean           3388                       # Reads before turning the bus around for writes
system.mem_ctrls.rdPerTurnAround::gmean   3137.715730                       # Reads before turning the bus around for writes
system.mem_ctrls.rdPerTurnAround::stdev   1807.364933                       # Reads before turning the bus around for writes
system.mem_ctrls.rdPerTurnAround::2048-2303            1     50.00%     50.00% # Reads before turning the bus around for writes
system.mem_ctrls.rdPerTurnAround::4608-4863            1     50.00%    100.00% # Reads before turning the bus around for writes
system.mem_ctrls.rdPerTurnAround::total             2                       # Reads before turning the bus around for writes
system.mem_ctrls.wrPerTurnAround::samples            2                       # Writes before turning the bus around for reads
system.mem_ctrls.wrPerTurnAround::mean             17                       # Writes before turning the bus around for reads
system.mem_ctrls.wrPerTurnAround::gmean     16.970563                       # Writes before turning the bus around for reads
system.mem_ctrls.wrPerTurnAround::stdev      1.414214                       # Writes before turning the bus around for reads
system.mem_ctrls.wrPerTurnAround::16                1     50.00%     50.00% # Writes before turning the bus around for reads
system.mem_ctrls.wrPerTurnAround::18                1     50.00%    100.00% # Writes before turning the bus around for reads
system.mem_ctrls.wrPerTurnAround::total             2                       # Writes before turning the bus around for reads
system.mem_ctrls.bytesReadDRAM                 440448                       # Total number of bytes read from DRAM
system.mem_ctrls.bytesReadWrQ                   45888                       # Total number of bytes read from write queue
system.mem_ctrls.bytesWritten                    2176                       # Total number of bytes written to DRAM
system.mem_ctrls.bytesReadSys                   33240                       # Total read bytes from the system interface side
system.mem_ctrls.bytesWrittenSys                30270                       # Total written bytes from the system interface side
system.mem_ctrls.avgRdBW                       374.10                       # Average DRAM read bandwidth in MiByte/s
system.mem_ctrls.avgWrBW                         1.85                       # Average achieved write bandwidth in MiByte/s
system.mem_ctrls.avgRdBWSys                     28.23                       # Average system read bandwidth in MiByte/s
system.mem_ctrls.avgWrBWSys                     25.71                       # Average system write bandwidth in MiByte/s
system.mem_ctrls.peakBW                      12800.00                       # Theoretical peak bandwidth in MiByte/s
system.mem_ctrls.busUtil                         2.94                       # Data bus utilization in percentage
system.mem_ctrls.busUtilRead                     2.92                       # Data bus utilization in percentage for reads
system.mem_ctrls.busUtilWrite                    0.01                       # Data bus utilization in percentage for writes
system.mem_ctrls.totGap                    1177202000                       # Total gap between requests
system.mem_ctrls.avgGap                      77203.70                       # Average gap between requests
system.mem_ctrls.masterReadBytes::.cpu.data        30618                       # Per-master bytes read from memory
system.mem_ctrls.masterWriteBytes::.cpu.data          136                       # Per-master bytes write to memory
system.mem_ctrls.masterReadRate::.cpu.data 26005882.707676313818                       # Per-master bytes read from memory rate (Bytes/sec)
system.mem_ctrls.masterWriteRate::.cpu.data 115513.751657325047                       # Per-master bytes write to memory rate (Bytes/sec)
system.mem_ctrls.masterReadAccesses::.cpu.data         7599                       # Per-master read serviced memory accesses
system.mem_ctrls.masterWriteAccesses::.cpu.data         7649                       # Per-master write serviced memory accesses
system.mem_ctrls.masterReadTotalLat::.cpu.data    158002750                       # Per-master read total memory access latency
system.mem_ctrls.masterWriteTotalLat::.cpu.data  27824143500                       # Per-master write total memory access latency
system.mem_ctrls.masterReadAvgLat::.cpu.data     20792.57                       # Per-master read average memory access latency
system.mem_ctrls.masterWriteAvgLat::.cpu.data   3637618.45                       # Per-master write average memory access latency
system.mem_ctrls.pageHitRate                    92.65                       # Row buffer hit rate, read and write combined
system.mem_ctrls.rank1.actEnergy                    0                       # Energy for activate commands per rank (pJ)
system.mem_ctrls.rank1.preEnergy                    0                       # Energy for precharge commands per rank (pJ)
system.mem_ctrls.rank1.readEnergy                   0                       # Energy for read commands per rank (pJ)
system.mem_ctrls.rank1.writeEnergy                  0                       # Energy for write commands per rank (pJ)
system.mem_ctrls.rank1.refreshEnergy     92810640.000000                       # Energy for refresh commands per rank (pJ)
system.mem_ctrls.rank1.actBackEnergy         16955790                       # Energy for active background per rank (pJ)
system.mem_ctrls.rank1.preBackEnergy        437823360                       # Energy for precharge background per rank (pJ)
system.mem_ctrls.rank1.actPowerDownEnergy            0                       # Energy for active power-down per rank (pJ)
system.mem_ctrls.rank1.prePowerDownEnergy            0                       # Energy for precharge power-down per rank (pJ)
system.mem_ctrls.rank1.selfRefreshEnergy            0                       # Energy for self refresh per rank (pJ)
system.mem_ctrls.rank1.totalEnergy          547589790                       # Total energy per rank (pJ)
system.mem_ctrls.rank1.averagePower        465.104052                       # Core power per rank (mW)
system.mem_ctrls.rank1.totalIdleTime                0                       # Total Idle time Per DRAM Rank
system.mem_ctrls.rank1.memoryStateTime::IDLE   1140704500                       # Time in different power states
system.mem_ctrls.rank1.memoryStateTime::REF     39260000                       # Time in different power states
system.mem_ctrls.rank1.memoryStateTime::SREF            0                       # Time in different power states
system.mem_ctrls.rank1.memoryStateTime::PRE_PDN            0                       # Time in different power states
system.mem_ctrls.rank1.memoryStateTime::ACT            0                       # Time in different power states
system.mem_ctrls.rank1.memoryStateTime::ACT_PDN            0                       # Time in different power states
system.mem_ctrls.rank0.actEnergy              3662820                       # Energy for activate commands per rank (pJ)
system.mem_ctrls.rank0.preEnergy              1943040                       # Energy for precharge commands per rank (pJ)
system.mem_ctrls.rank0.readEnergy            49244580                       # Energy for read commands per rank (pJ)
system.mem_ctrls.rank0.writeEnergy             177480                       # Energy for write commands per rank (pJ)
system.mem_ctrls.rank0.refreshEnergy     92810640.000000                       # Energy for refresh commands per rank (pJ)
system.mem_ctrls.rank0.actBackEnergy        502424790                       # Energy for active background per rank (pJ)
system.mem_ctrls.rank0.preBackEnergy         30006720                       # Energy for precharge background per rank (pJ)
system.mem_ctrls.rank0.actPowerDownEnergy            0                       # Energy for active power-down per rank (pJ)
system.mem_ctrls.rank0.prePowerDownEnergy            0                       # Energy for precharge power-down per rank (pJ)
system.mem_ctrls.rank0.selfRefreshEnergy            0                       # Energy for self refresh per rank (pJ)
system.mem_ctrls.rank0.totalEnergy          680270070                       # Total energy per rank (pJ)
system.mem_ctrls.rank0.averagePower        577.798147                       # Core power per rank (mW)
system.mem_ctrls.rank0.totalIdleTime                0                       # Total Idle time Per DRAM Rank
system.mem_ctrls.rank0.memoryStateTime::IDLE     69013500                       # Time in different power states
system.mem_ctrls.rank0.memoryStateTime::REF     39260000                       # Time in different power states
system.mem_ctrls.rank0.memoryStateTime::SREF            0                       # Time in different power states
system.mem_ctrls.rank0.memoryStateTime::PRE_PDN            0                       # Time in different power states
system.mem_ctrls.rank0.memoryStateTime::ACT   1071677250                       # Time in different power states
system.mem_ctrls.rank0.memoryStateTime::ACT_PDN            0                       # Time in different power states
system.iobus.pwrStateResidencyTicks::UNDEFINED   1226942000                       # Cumulative time (in ticks) in various power states
system.iobus.trans_dist::WriteReq                  52                       # Transaction distribution
system.iobus.trans_dist::WriteResp                 52                       # Transaction distribution
system.iobus.pkt_count_system.bridge.master::system.realview.uart.pio          104                       # Packet count per connected master and slave (bytes)
system.iobus.pkt_count_system.bridge.master::total          104                       # Packet count per connected master and slave (bytes)
system.iobus.pkt_count::total                     104                       # Packet count per connected master and slave (bytes)
system.iobus.pkt_size_system.bridge.master::system.realview.uart.pio          208                       # Cumulative packet size per connected master and slave (bytes)
system.iobus.pkt_size_system.bridge.master::total          208                       # Cumulative packet size per connected master and slave (bytes)
system.iobus.pkt_size::total                      208                       # Cumulative packet size per connected master and slave (bytes)
system.iobus.reqLayer1.occupancy               107500                       # Layer occupancy (ticks)
system.iobus.reqLayer1.utilization                0.0                       # Layer utilization (%)
system.iobus.respLayer0.occupancy               52000                       # Layer occupancy (ticks)
system.iobus.respLayer0.utilization               0.0                       # Layer utilization (%)
system.cpu_clk_domain.clock                       500                       # Clock period in ticks
system.cpu.pwrStateResidencyTicks::ON      1226942000                       # Cumulative time (in ticks) in various power states
system.cpu.icache.pwrStateResidencyTicks::UNDEFINED   1226942000                       # Cumulative time (in ticks) in various power states
system.cpu.icache.blocked_cycles::no_mshrs            0                       # number of cycles access was blocked
system.cpu.icache.blocked_cycles::no_targets            0                       # number of cycles access was blocked
system.cpu.icache.blocked::no_mshrs                 0                       # number of cycles access was blocked
system.cpu.icache.blocked::no_targets               0                       # number of cycles access was blocked
system.cpu.icache.avg_blocked_cycles::no_mshrs          nan                       # average number of cycles each access was blocked
system.cpu.icache.avg_blocked_cycles::no_targets          nan                       # average number of cycles each access was blocked
system.cpu.icache.overall_mshr_uncacheable_misses::.cpu.inst        14903                       # number of overall MSHR uncacheable misses
system.cpu.icache.overall_mshr_uncacheable_misses::total        14903                       # number of overall MSHR uncacheable misses
system.cpu.icache.overall_mshr_uncacheable_latency::.cpu.inst    984983000                       # number of overall MSHR uncacheable cycles
system.cpu.icache.overall_mshr_uncacheable_latency::total    984983000                       # number of overall MSHR uncacheable cycles
system.cpu.icache.overall_avg_mshr_uncacheable_latency::.cpu.inst 66092.934309                       # average overall mshr uncacheable latency
system.cpu.icache.overall_avg_mshr_uncacheable_latency::total 66092.934309                       # average overall mshr uncacheable latency
system.cpu.icache.replacements                      0                       # number of replacements
system.cpu.icache.ReadReq_mshr_uncacheable::.cpu.inst        14903                       # number of ReadReq MSHR uncacheable
system.cpu.icache.ReadReq_mshr_uncacheable::total        14903                       # number of ReadReq MSHR uncacheable
system.cpu.icache.ReadReq_mshr_uncacheable_latency::.cpu.inst    984983000                       # number of ReadReq MSHR uncacheable cycles
system.cpu.icache.ReadReq_mshr_uncacheable_latency::total    984983000                       # number of ReadReq MSHR uncacheable cycles
system.cpu.icache.ReadReq_avg_mshr_uncacheable_latency::.cpu.inst 66092.934309                       # average ReadReq mshr uncacheable latency
system.cpu.icache.ReadReq_avg_mshr_uncacheable_latency::total 66092.934309                       # average ReadReq mshr uncacheable latency
system.cpu.icache.tags.pwrStateResidencyTicks::UNDEFINED   1226942000                       # Cumulative time (in ticks) in various power states
system.cpu.icache.tags.tagsinuse                    0                       # Cycle average of tags in use
system.cpu.icache.tags.total_refs                   0                       # Total number of references to valid blocks.
system.cpu.icache.tags.sampled_refs                 0                       # Sample count of references to valid blocks.
system.cpu.icache.tags.avg_refs                   nan                       # Average number of references to valid blocks.
system.cpu.icache.tags.warmup_cycle                 0                       # Cycle when the warmup percentage was hit.
system.cpu.icache.tags.tag_accesses                 0                       # Number of tag accesses
system.cpu.icache.tags.data_accesses                0                       # Number of data accesses
system.cpu.dtb.walker.pwrStateResidencyTicks::UNDEFINED   1226942000                       # Cumulative time (in ticks) in various power states
system.cpu.dtb.stage2_mmu.stage2_tlb.walker.pwrStateResidencyTicks::UNDEFINED   1226942000                       # Cumulative time (in ticks) in various power states
system.cpu.dcache.pwrStateResidencyTicks::UNDEFINED   1226942000                       # Cumulative time (in ticks) in various power states
system.cpu.dcache.blocked_cycles::no_mshrs            0                       # number of cycles access was blocked
system.cpu.dcache.blocked_cycles::no_targets            0                       # number of cycles access was blocked
system.cpu.dcache.blocked::no_mshrs                 0                       # number of cycles access was blocked
system.cpu.dcache.blocked::no_targets               0                       # number of cycles access was blocked
system.cpu.dcache.avg_blocked_cycles::no_mshrs          nan                       # average number of cycles each access was blocked
system.cpu.dcache.avg_blocked_cycles::no_targets          nan                       # average number of cycles each access was blocked
system.cpu.dcache.overall_mshr_uncacheable_misses::.cpu.data        15657                       # number of overall MSHR uncacheable misses
system.cpu.dcache.overall_mshr_uncacheable_misses::total        15657                       # number of overall MSHR uncacheable misses
system.cpu.dcache.overall_mshr_uncacheable_latency::.cpu.data    580396500                       # number of overall MSHR uncacheable cycles
system.cpu.dcache.overall_mshr_uncacheable_latency::total    580396500                       # number of overall MSHR uncacheable cycles
system.cpu.dcache.overall_avg_mshr_uncacheable_latency::.cpu.data 37069.457751                       # average overall mshr uncacheable latency
system.cpu.dcache.overall_avg_mshr_uncacheable_latency::total 37069.457751                       # average overall mshr uncacheable latency
system.cpu.dcache.replacements                      0                       # number of replacements
system.cpu.dcache.ReadReq_mshr_uncacheable::.cpu.data         7956                       # number of ReadReq MSHR uncacheable
system.cpu.dcache.ReadReq_mshr_uncacheable::total         7956                       # number of ReadReq MSHR uncacheable
system.cpu.dcache.ReadReq_mshr_uncacheable_latency::.cpu.data    580396500                       # number of ReadReq MSHR uncacheable cycles
system.cpu.dcache.ReadReq_mshr_uncacheable_latency::total    580396500                       # number of ReadReq MSHR uncacheable cycles
system.cpu.dcache.ReadReq_avg_mshr_uncacheable_latency::.cpu.data 72950.791855                       # average ReadReq mshr uncacheable latency
system.cpu.dcache.ReadReq_avg_mshr_uncacheable_latency::total 72950.791855                       # average ReadReq mshr uncacheable latency
system.cpu.dcache.WriteReq_mshr_uncacheable::.cpu.data         7701                       # number of WriteReq MSHR uncacheable
system.cpu.dcache.WriteReq_mshr_uncacheable::total         7701                       # number of WriteReq MSHR uncacheable
system.cpu.dcache.tags.pwrStateResidencyTicks::UNDEFINED   1226942000                       # Cumulative time (in ticks) in various power states
system.cpu.dcache.tags.tagsinuse                    0                       # Cycle average of tags in use
system.cpu.dcache.tags.total_refs                   0                       # Total number of references to valid blocks.
system.cpu.dcache.tags.sampled_refs                 0                       # Sample count of references to valid blocks.
system.cpu.dcache.tags.avg_refs                   nan                       # Average number of references to valid blocks.
system.cpu.dcache.tags.warmup_cycle                 0                       # Cycle when the warmup percentage was hit.
system.cpu.dcache.tags.tag_accesses                 0                       # Number of tag accesses
system.cpu.dcache.tags.data_accesses                0                       # Number of data accesses
system.cpu.itb.walker.pwrStateResidencyTicks::UNDEFINED   1226942000                       # Cumulative time (in ticks) in various power states
system.cpu.itb.stage2_mmu.stage2_tlb.walker.pwrStateResidencyTicks::UNDEFINED   1226942000                       # Cumulative time (in ticks) in various power states

---------- End Simulation Statistics   ----------
